*Heading
** Job name: rndWn+TriCableF Model name: Model-1
** Generated by: Abaqus/CAE 2017
*Preprint, echo=NO, model=NO, history=NO, contact=NO
**
** PARTS
**
*Part, name=Cable_Bm_2D
*Node
      1,           0.,           0.
      2,           2.,           0.
      3,           5.,           0.
      4,          20.,           0.
      5,          40.,           0.
      6,    69.442749,           0.
      7,   98.8850021,           0.
      8,   138.885498,           0.
      9,          7.5,           0.
     10,          10.,           0.
     11,         12.5,           0.
     12,          15.,           0.
     13,         17.5,           0.
     14,         22.5,           0.
     15,          25.,           0.
     16,         27.5,           0.
     17,          30.,           0.
     18,         32.5,           0.
     19,          35.,           0.
     20,         37.5,           0.
** ... 37 like lines cut
*Element, type=B23H
1, 1, 2
2, 2, 3
3,  3,  9
4,  9, 10
5, 10, 11
6, 11, 12
7, 12, 13
8, 13,  4
 9,  4, 14
10, 14, 15
11, 15, 16
12, 16, 17
13, 17, 18
14, 18, 19
15, 19, 20
16, 20,  5
17,  5, 21
18, 21, 22
19, 22, 23
20, 23, 24
** ... 36 like lines cut
*Nset, nset=cable, generate
  1,  57,   1
*Elset, elset=cable, generate
  1,  56,   1
*Orientation, name=Ori-1
1., 0., 0., 0., 1., 0.
3, 0.
** Section: Cable_r_bm  Profile: r_bm
*Beam Section, elset=cable, material=Steel_CablePart, poisson = 0.31, temperature=GRADIENTS, section=CIRC
0.0607227
0.,0.,-1.
*End Part
**  
**
** ASSEMBLY
**
*Assembly, name=Assembly
**  
*Instance, name=Cable_Bm_2D-1, part=Cable_Bm_2D
          0.,           0.,           0.
          0.,           0.,           0.,           0.,           0.,           1., 26.9859998032316
*End Instance
**  
*Nset, nset=LeftAnch, instance=Cable_Bm_2D-1
 1,
*Nset, nset=LoadPoint1Geo_WN1-6, instance=Cable_Bm_2D-1
 3,
*Nset, nset=LoadPoint2Geo_WN7-12, instance=Cable_Bm_2D-1
 5,
*Nset, nset=RightAnch, instance=Cable_Bm_2D-1
 8,
*Nset, nset=Sensor1, instance=Cable_Bm_2D-1
 4,
*Nset, nset=Sensor2, instance=Cable_Bm_2D-1
 6,
*Nset, nset=Sensor3, instance=Cable_Bm_2D-1
 7,
*End Assembly
*Amplitude, name=LinearDec
             0.,              1.,              1.,              0.
*Amplitude, name=Lp10_WhiteNoise1_10s_pw1_fs1k
             0.,  -0.00035738054,           0.001,  -0.00039921485,           0.002,  -0.00041775942,           0.003,  -0.00041355633
          0.004,  -0.00039064154,           0.005,  -0.00035645577,           0.006,  -0.00034653328,           0.007,  -0.00034774496
          0.008,  -0.00035467722,           0.009,  -0.00035813925,            0.01,  -0.00035047916,           0.011,  -0.00036876588
          0.012,  -0.00038330605,           0.013,  -0.00038455691,           0.014,  -0.00036457293,           0.015,  -0.00032164178
          0.016,  -0.00031814183,           0.017,  -0.00031820574,           0.018,  -0.00030994474,           0.019,  -0.00027900147
           0.02,   -0.0002167266,           0.021,  -0.00020124231,           0.022,  -0.00017953845,           0.023,  -0.00013434244
          0.024,  -4.7943796e-05,           0.025,    8.813684e-05,           0.026,   0.00016959011,           0.027,   0.00026270368
          0.028,   0.00038919351,           0.029,   0.00057322959,            0.03,   0.00082852131,           0.031,    0.0010287594
          0.032,    0.0012578229,           0.033,     0.001542807,           0.034,    0.0019127047,           0.035,    0.0023832969
          0.036,     0.002803536,           0.037,    0.0032721561,           0.038,    0.0038207061,           0.039,    0.0044835567
           0.04,    0.0052800841,           0.041,    0.0060387682,           0.042,    0.0068720729,           0.043,    0.0078148856
          0.044,    0.0089048821,           0.045,     0.010162923,           0.046,     0.011400336,           0.047,      0.01273885
          0.048,      0.01421487,           0.049,     0.015867853,            0.05,     0.017719314,           0.051,      0.01957032
          0.052,     0.021546291,           0.053,     0.023682768,           0.054,     0.026018344,           0.055,     0.028573273
          0.056,     0.031145895,           0.057,     0.033859181,           0.058,     0.036745221,           0.059,     0.039839014
           0.06,     0.043157696,           0.061,     0.046505756,           0.062,     0.049996775,           0.063,     0.053656832
          0.064,      0.05751464,           0.065,      0.06158246,           0.066,     0.065680123,           0.067,     0.069905095
          0.068,     0.074275238,           0.069,     0.078810669,            0.07,      0.08351737,           0.071,     0.088239252
          0.072,     0.093051954,           0.073,     0.097963584,           0.074,      0.10298406,           0.075,      0.10811229
          0.076,      0.11322379,           0.077,      0.11836841,           0.078,       0.1235439,           0.079,      0.12874935
** ... 2481 like lines cut
*Amplitude, name=Lp10_WhiteNoise2_10s_pw1_fs1k
             0.,     -0.01223851,           0.001,    -0.013492076,           0.002,    -0.013909809,           0.003,     -0.01364609
          0.004,    -0.012982575,           0.005,     -0.01223805,           0.006,    -0.011641427,           0.007,    -0.011371085
          0.008,    -0.011452356,           0.009,    -0.011795028,            0.01,    -0.012240997,           0.011,    -0.012575434
          0.012,    -0.012724743,           0.013,    -0.012673646,           0.014,    -0.012484401,           0.015,     -0.01226002
          0.016,    -0.012030162,           0.017,    -0.011912296,           0.018,     -0.01194062,           0.019,    -0.012099889
           0.02,    -0.012335202,           0.021,    -0.012481954,           0.022,     -0.01255598,           0.023,    -0.012564873
          0.024,    -0.012550902,           0.025,    -0.012565991,           0.026,    -0.012526525,           0.027,    -0.012542811
          0.028,    -0.012647771,           0.029,    -0.012855592,            0.03,    -0.013154946,           0.031,    -0.013360334
          0.032,    -0.013557623,           0.033,    -0.013776859,           0.034,    -0.014063375,           0.035,    -0.014452564
          0.036,    -0.014766261,           0.037,    -0.015139469,           0.038,    -0.015613004,           0.039,    -0.016224193
           0.04,    -0.016987637,           0.041,    -0.017666621,           0.042,    -0.018406095,           0.043,    -0.019253486
          0.044,    -0.020263303,           0.045,    -0.021467984,           0.046,    -0.022608352,           0.047,    -0.023855606
          0.048,    -0.025261097,           0.049,    -0.026879468,            0.05,    -0.028739713,           0.051,    -0.030541962
          0.052,    -0.032485549,           0.053,    -0.034625239,           0.054,      -0.0370194,           0.055,    -0.039698391
          0.056,    -0.042338363,           0.057,    -0.045150041,           0.058,    -0.048188803,           0.059,    -0.051513803
           0.06,     -0.05515468,           0.061,     -0.05877266,           0.062,    -0.062582093,           0.063,    -0.066635686
          0.064,    -0.070989976,           0.065,    -0.075671646,           0.066,    -0.080339025,           0.067,    -0.085200928
          0.068,    -0.090304034,           0.069,    -0.095698785,            0.07,     -0.10140687,           0.071,     -0.10709851
          0.072,     -0.11296707,           0.073,     -0.11905014,           0.074,     -0.12538887,           0.075,     -0.13199835
          0.076,     -0.13857736,           0.077,     -0.14529391,           0.078,     -0.15217392,           0.079,     -0.15924646
** ... 2481 like lines cut
*Amplitude, name=SinWave_10s_fSin5s_fs200
             0.,              0.,           0.005,     0.006283144,            0.01,      0.01256604,           0.015,      0.01884844
           0.02,     0.025130095,           0.025,     0.031410759,            0.03,     0.037690183,           0.035,     0.043968118
           0.04,     0.050244318,           0.045,     0.056518534,            0.05,      0.06279052,           0.055,     0.069060026
           0.06,     0.075326806,           0.065,     0.081590612,            0.07,     0.087851197,           0.075,     0.094108313
           0.08,      0.10036171,           0.085,      0.10661115,            0.09,      0.11285638,           0.095,      0.11909716
            0.1,      0.12533323,           0.105,      0.13156436,            0.11,      0.13779029,           0.115,      0.14401078
           0.12,      0.15022559,           0.125,      0.15643447,            0.13,      0.16263717,           0.135,      0.16883344
           0.14,      0.17502306,           0.145,      0.18120576,            0.15,      0.18738131,           0.155,      0.19354947
           0.16,      0.19970998,           0.165,      0.20586261,            0.17,      0.21200711,           0.175,      0.21814324
           0.18,      0.22427076,           0.185,      0.23038943,            0.19,        0.236499,           0.195,      0.24259923
            0.2,      0.24868989,           0.205,      0.25477073,            0.21,      0.26084151,           0.215,      0.26690199
           0.22,      0.27295194,           0.225,      0.27899111,            0.23,      0.28501926,           0.235,      0.29103617
           0.24,      0.29704158,           0.245,      0.30303527,            0.25,      0.30901699,           0.255,      0.31498652
           0.26,      0.32094361,           0.265,      0.32688803,            0.27,      0.33281954,           0.275,      0.33873792
           0.28,      0.34464292,           0.285,      0.35053432,            0.29,      0.35641188,           0.295,      0.36227537
            0.3,      0.36812455,           0.305,      0.37395921,            0.31,       0.3797791,           0.315,      0.38558399
           0.32,      0.39137367,           0.325,      0.39714789,            0.33,      0.40290644,           0.335,      0.40864907
           0.34,      0.41437558,           0.345,      0.42008573,            0.35,      0.42577929,           0.355,      0.43145605
           0.36,      0.43711577,           0.365,      0.44275823,            0.37,      0.44838322,           0.375,       0.4539905
           0.38,      0.45957986,           0.385,      0.46515108,            0.39,      0.47070393,           0.395,       0.4762382
** ... 481 like lines cut
*Amplitude, name=Smf_Dec_1s
             0.,              1.,            0.01,          0.9998,            0.02,          0.9992,            0.03,          0.9982
           0.04,          0.9968,            0.05,           0.995,            0.06,          0.9928,            0.07,          0.9902
           0.08,          0.9872,            0.09,          0.9838,             0.1,            0.98,            0.11,          0.9758
           0.12,          0.9712,            0.13,          0.9662,            0.14,          0.9608,            0.15,           0.955
           0.16,          0.9488,            0.17,          0.9422,            0.18,          0.9352,            0.19,          0.9278
            0.2,            0.92,            0.21,          0.9118,            0.22,          0.9032,            0.23,          0.8942
           0.24,          0.8848,            0.25,           0.875,            0.26,          0.8648,            0.27,          0.8542
           0.28,          0.8432,            0.29,          0.8318,             0.3,            0.82,            0.31,          0.8078
           0.32,          0.7952,            0.33,          0.7822,            0.34,          0.7688,            0.35,           0.755
           0.36,          0.7408,            0.37,          0.7262,            0.38,          0.7112,            0.39,          0.6958
            0.4,            0.68,            0.41,          0.6638,            0.42,          0.6472,            0.43,          0.6302
           0.44,          0.6128,            0.45,           0.595,            0.46,          0.5768,            0.47,          0.5582
           0.48,          0.5392,            0.49,          0.5198,             0.5,             0.5,            0.51,          0.4802
           0.52,          0.4608,            0.53,          0.4418,            0.54,          0.4232,            0.55,           0.405
           0.56,          0.3872,            0.57,          0.3698,            0.58,          0.3528,            0.59,          0.3362
            0.6,            0.32,            0.61,          0.3042,            0.62,          0.2888,            0.63,          0.2738
           0.64,          0.2592,            0.65,           0.245,            0.66,          0.2312,            0.67,          0.2178
           0.68,          0.2048,            0.69,          0.1922,             0.7,            0.18,            0.71,          0.1682
           0.72,          0.1568,            0.73,          0.1458,            0.74,          0.1352,            0.75,           0.125
           0.76,          0.1152,            0.77,          0.1058,            0.78,          0.0968,            0.79,          0.0882
** ... 6 like lines cut
*Amplitude, name=TriWave_10s_fTri5s_fs200
             0.,              0.,           0.005,           0.004,            0.01,           0.008,           0.015,           0.012
           0.02,           0.016,           0.025,            0.02,            0.03,           0.024,           0.035,           0.028
           0.04,           0.032,           0.045,           0.036,            0.05,            0.04,           0.055,           0.044
           0.06,           0.048,           0.065,           0.052,            0.07,           0.056,           0.075,            0.06
           0.08,           0.064,           0.085,           0.068,            0.09,           0.072,           0.095,           0.076
            0.1,            0.08,           0.105,           0.084,            0.11,           0.088,           0.115,           0.092
           0.12,           0.096,           0.125,             0.1,            0.13,           0.104,           0.135,           0.108
           0.14,           0.112,           0.145,           0.116,            0.15,            0.12,           0.155,           0.124
           0.16,           0.128,           0.165,           0.132,            0.17,           0.136,           0.175,            0.14
           0.18,           0.144,           0.185,           0.148,            0.19,           0.152,           0.195,           0.156
            0.2,            0.16,           0.205,           0.164,            0.21,           0.168,           0.215,           0.172
           0.22,           0.176,           0.225,            0.18,            0.23,           0.184,           0.235,           0.188
           0.24,           0.192,           0.245,           0.196,            0.25,             0.2,           0.255,           0.204
           0.26,           0.208,           0.265,           0.212,            0.27,           0.216,           0.275,            0.22
           0.28,           0.224,           0.285,           0.228,            0.29,           0.232,           0.295,           0.236
            0.3,            0.24,           0.305,           0.244,            0.31,           0.248,           0.315,           0.252
           0.32,           0.256,           0.325,            0.26,            0.33,           0.264,           0.335,           0.268
           0.34,           0.272,           0.345,           0.276,            0.35,            0.28,           0.355,           0.284
           0.36,           0.288,           0.365,           0.292,            0.37,           0.296,           0.375,             0.3
           0.38,           0.304,           0.385,           0.308,            0.39,           0.312,           0.395,           0.316
** ... 481 like lines cut
** 
** MATERIALS
** 
*Material, name=Steel_CablePart
*Damping, alpha=0.0622, beta=0.0002
*Density
7800.,
*Elastic
 1.95e+11, 0.31
*Expansion, type=ORTHO
 5.1282e-06,0.,0.
*Material, name=Steel_Other
*Density
7800.,
*Elastic
 1.95e+11, 0.31
** 
** BOUNDARY CONDITIONS
** 
** Name: LeftAnch Type: Displacement/Rotation
*Boundary
LeftAnch, 1, 1
LeftAnch, 2, 2
LeftAnch, 3, 3
LeftAnch, 4, 4
LeftAnch, 5, 5
** Name: RightAnch Type: Displacement/Rotation
*Boundary
RightAnch, 1, 1
RightAnch, 2, 2
RightAnch, 3, 3
RightAnch, 4, 4
RightAnch, 5, 5
** 
** PREDEFINED FIELDS
** 
** Name: CoolDownPres   Type: Temperature
*Initial Conditions, type=TEMPERATURE
Cable_Bm_2D-1.cable, 853.
** ----------------------------------------------------------------
** 
** STEP: GP
** 
*Step, name=GP, nlgeom=YES, inc=1000000
*Static
0.002, 1., 1e-09, 0.002
** 
** LOADS
** 
** Name: G   Type: Gravity
*Dload
, GRAV, 9.8, 0., -1.
** 
** PREDEFINED FIELDS
** 
** Name: CoolDownPres   Type: Temperature
*Temperature, amplitude=Smf_Dec_1s
Cable_Bm_2D-1.cable, 853.
** 
** OUTPUT REQUESTS
** 
*Restart, write, frequency=0
*Output, field, frequency=0
*Output, history, frequency=0
*End Step
** ----------------------------------------------------------------
** 
** STEP: TimeVaryCableForce
** 
*Step, name=TimeVaryCableForce, nlgeom=YES, inc=10000000
*Dynamic,direct
0.001,10.,
** 
** LOADS
** 
** Name: LoadPoint1_Wn1   Type: Concentrated force
*Cload, op=NEW, amplitude=Lp10_WhiteNoise1_10s_pw1_fs1k
LoadPoint1Geo_WN1-6, 1, 100.
** Name: LoadPoint1_Wn2   Type: Concentrated force
*Cload, op=NEW, amplitude=Lp10_WhiteNoise2_10s_pw1_fs1k
LoadPoint1Geo_WN1-6, 2, 100.
** 
** PREDEFINED FIELDS
** 
** Name: CoolDownPres   Type: Temperature
*Temperature, amplitude=TriWave_10s_fTri5s_fs200
Cable_Bm_2D-1.cable, -100.
** 
** OUTPUT REQUESTS
** 
*Restart, write, frequency=0
*Output, field, frequency=0
** 
** HISTORY OUTPUT: SENSOR1
** 
*Output, history, time interval=0.005, time marks=NO
*Node Output, nset=Sensor1
A1, A2
** 
** HISTORY OUTPUT: SENSOR2
** 
*Node Output, nset=Sensor2
A1, A2
** 
** HISTORY OUTPUT: SENSOR3
** 
*Node Output, nset=Sensor3
A1, A2
*End Step
